<?xml version="1.0" encoding="UTF-8"?>
<!DOCTYPE network SYSTEM "http://www.matsim.org/files/dtd/network_v2.dtd">
<network>

<!-- ====================================================================== -->

	<nodes>
		<node id="1" x="10.0" y="510.0" >
		</node>
		<node id="2" x="510.0" y="10.0" >
		</node>
		<node id="3" x="1010.0" y="510.0" >
		</node>
		<node id="4" x="1510.0" y="510.0" >
		</node>
		<node id="d" x="1520.0" y="510.0" >
		</node>
		<node id="o1" x="0.0" y="510.0" >
		</node>
		<node id="o2" x="510.0" y="0.0" >
		</node>
	</nodes>

<!-- ====================================================================== -->

	<links capperiod="01:00:00" effectivecellsize="7.5" effectivelanewidth="3.75">
		<link id="1_2" from="1" to="2" length="707.0" freespeed="14.0" capacity="300.0" permlanes="1.0" oneway="1" modes="car" >
		</link>
		<link id="1_3" from="1" to="3" length="10.0" freespeed="14.0" capacity="300.0" permlanes="1.0" oneway="1" modes="car" >
		</link>
		<link id="2_3" from="2" to="3" length="707.0" freespeed="14.0" capacity="300.0" permlanes="1.0" oneway="1" modes="car" >
		</link>
		<link id="3_4" from="3" to="4" length="500.0" freespeed="14.0" capacity="300.0" permlanes="1.0" oneway="1" modes="car" >
		</link>
		<link id="4_d" from="4" to="d" length="10.0" freespeed="1.0" capacity="1.0" permlanes="1.0" oneway="1" modes="car" >
		</link>
		<link id="o1_1" from="o1" to="1" length="10.0" freespeed="14.0" capacity="300.0" permlanes="1.0" oneway="1" modes="car" >
		</link>
		<link id="o2_2" from="o2" to="2" length="10.0" freespeed="14.0" capacity="300.0" permlanes="1.0" oneway="1" modes="car" >
		</link>
	</links>

<!-- ====================================================================== -->

</network>
