<?xml version="1.0" encoding="utf-8"?>
<!DOCTYPE population SYSTEM "http://www.matsim.org/files/dtd/population_v6.dtd">

<population>



<!-- ====================================================================== -->

	<person id="o1_d_0">
		<plan selected="yes">
			<activity type="home" x="0.0" y="510.0" end_time="08:00:00" >
			</activity>
			<leg mode="car">
			</leg>
			<activity type="work" x="1520.0" y="510.0" >
			</activity>
		</plan>

	</person>

<!-- ====================================================================== -->

	<person id="o1_d_1">
		<plan selected="yes">
			<activity type="home" x="0.0" y="510.0" end_time="08:00:00" >
			</activity>
			<leg mode="car">
			</leg>
			<activity type="work" x="1520.0" y="510.0" >
			</activity>
		</plan>

	</person>

<!-- ====================================================================== -->

	<person id="o1_d_10">
		<plan selected="yes">
			<activity type="home" x="0.0" y="510.0" end_time="08:00:00" >
			</activity>
			<leg mode="car">
			</leg>
			<activity type="work" x="1520.0" y="510.0" >
			</activity>
		</plan>

	</person>

<!-- ====================================================================== -->

	<person id="o1_d_11">
		<plan selected="yes">
			<activity type="home" x="0.0" y="510.0" end_time="08:00:00" >
			</activity>
			<leg mode="car">
			</leg>
			<activity type="work" x="1520.0" y="510.0" >
			</activity>
		</plan>

	</person>

<!-- ====================================================================== -->

	<person id="o1_d_12">
		<plan selected="yes">
			<activity type="home" x="0.0" y="510.0" end_time="08:00:00" >
			</activity>
			<leg mode="car">
			</leg>
			<activity type="work" x="1520.0" y="510.0" >
			</activity>
		</plan>

	</person>

<!-- ====================================================================== -->

	<person id="o1_d_13">
		<plan selected="yes">
			<activity type="home" x="0.0" y="510.0" end_time="08:00:00" >
			</activity>
			<leg mode="car">
			</leg>
			<activity type="work" x="1520.0" y="510.0" >
			</activity>
		</plan>

	</person>

<!-- ====================================================================== -->

	<person id="o1_d_14">
		<plan selected="yes">
			<activity type="home" x="0.0" y="510.0" end_time="08:00:00" >
			</activity>
			<leg mode="car">
			</leg>
			<activity type="work" x="1520.0" y="510.0" >
			</activity>
		</plan>

	</person>

<!-- ====================================================================== -->

	<person id="o1_d_15">
		<plan selected="yes">
			<activity type="home" x="0.0" y="510.0" end_time="08:00:00" >
			</activity>
			<leg mode="car">
			</leg>
			<activity type="work" x="1520.0" y="510.0" >
			</activity>
		</plan>

	</person>

<!-- ====================================================================== -->

	<person id="o1_d_16">
		<plan selected="yes">
			<activity type="home" x="0.0" y="510.0" end_time="08:00:00" >
			</activity>
			<leg mode="car">
			</leg>
			<activity type="work" x="1520.0" y="510.0" >
			</activity>
		</plan>

	</person>

<!-- ====================================================================== -->

	<person id="o1_d_17">
		<plan selected="yes">
			<activity type="home" x="0.0" y="510.0" end_time="08:00:00" >
			</activity>
			<leg mode="car">
			</leg>
			<activity type="work" x="1520.0" y="510.0" >
			</activity>
		</plan>

	</person>

<!-- ====================================================================== -->

	<person id="o1_d_18">
		<plan selected="yes">
			<activity type="home" x="0.0" y="510.0" end_time="08:00:00" >
			</activity>
			<leg mode="car">
			</leg>
			<activity type="work" x="1520.0" y="510.0" >
			</activity>
		</plan>

	</person>

<!-- ====================================================================== -->

	<person id="o1_d_19">
		<plan selected="yes">
			<activity type="home" x="0.0" y="510.0" end_time="08:00:00" >
			</activity>
			<leg mode="car">
			</leg>
			<activity type="work" x="1520.0" y="510.0" >
			</activity>
		</plan>

	</person>

<!-- ====================================================================== -->

	<person id="o1_d_2">
		<plan selected="yes">
			<activity type="home" x="0.0" y="510.0" end_time="08:00:00" >
			</activity>
			<leg mode="car">
			</leg>
			<activity type="work" x="1520.0" y="510.0" >
			</activity>
		</plan>

	</person>

<!-- ====================================================================== -->

	<person id="o1_d_20">
		<plan selected="yes">
			<activity type="home" x="0.0" y="510.0" end_time="08:00:00" >
			</activity>
			<leg mode="car">
			</leg>
			<activity type="work" x="1520.0" y="510.0" >
			</activity>
		</plan>

	</person>

<!-- ====================================================================== -->

	<person id="o1_d_21">
		<plan selected="yes">
			<activity type="home" x="0.0" y="510.0" end_time="08:00:00" >
			</activity>
			<leg mode="car">
			</leg>
			<activity type="work" x="1520.0" y="510.0" >
			</activity>
		</plan>

	</person>

<!-- ====================================================================== -->

	<person id="o1_d_22">
		<plan selected="yes">
			<activity type="home" x="0.0" y="510.0" end_time="08:00:00" >
			</activity>
			<leg mode="car">
			</leg>
			<activity type="work" x="1520.0" y="510.0" >
			</activity>
		</plan>

	</person>

<!-- ====================================================================== -->

	<person id="o1_d_23">
		<plan selected="yes">
			<activity type="home" x="0.0" y="510.0" end_time="08:00:00" >
			</activity>
			<leg mode="car">
			</leg>
			<activity type="work" x="1520.0" y="510.0" >
			</activity>
		</plan>

	</person>

<!-- ====================================================================== -->

	<person id="o1_d_24">
		<plan selected="yes">
			<activity type="home" x="0.0" y="510.0" end_time="08:00:00" >
			</activity>
			<leg mode="car">
			</leg>
			<activity type="work" x="1520.0" y="510.0" >
			</activity>
		</plan>

	</person>

<!-- ====================================================================== -->

	<person id="o1_d_25">
		<plan selected="yes">
			<activity type="home" x="0.0" y="510.0" end_time="08:00:00" >
			</activity>
			<leg mode="car">
			</leg>
			<activity type="work" x="1520.0" y="510.0" >
			</activity>
		</plan>

	</person>

<!-- ====================================================================== -->

	<person id="o1_d_26">
		<plan selected="yes">
			<activity type="home" x="0.0" y="510.0" end_time="08:00:00" >
			</activity>
			<leg mode="car">
			</leg>
			<activity type="work" x="1520.0" y="510.0" >
			</activity>
		</plan>

	</person>

<!-- ====================================================================== -->

	<person id="o1_d_27">
		<plan selected="yes">
			<activity type="home" x="0.0" y="510.0" end_time="08:00:00" >
			</activity>
			<leg mode="car">
			</leg>
			<activity type="work" x="1520.0" y="510.0" >
			</activity>
		</plan>

	</person>

<!-- ====================================================================== -->

	<person id="o1_d_28">
		<plan selected="yes">
			<activity type="home" x="0.0" y="510.0" end_time="08:00:00" >
			</activity>
			<leg mode="car">
			</leg>
			<activity type="work" x="1520.0" y="510.0" >
			</activity>
		</plan>

	</person>

<!-- ====================================================================== -->

	<person id="o1_d_29">
		<plan selected="yes">
			<activity type="home" x="0.0" y="510.0" end_time="08:00:00" >
			</activity>
			<leg mode="car">
			</leg>
			<activity type="work" x="1520.0" y="510.0" >
			</activity>
		</plan>

	</person>

<!-- ====================================================================== -->

	<person id="o1_d_3">
		<plan selected="yes">
			<activity type="home" x="0.0" y="510.0" end_time="08:00:00" >
			</activity>
			<leg mode="car">
			</leg>
			<activity type="work" x="1520.0" y="510.0" >
			</activity>
		</plan>

	</person>

<!-- ====================================================================== -->

	<person id="o1_d_30">
		<plan selected="yes">
			<activity type="home" x="0.0" y="510.0" end_time="08:00:00" >
			</activity>
			<leg mode="car">
			</leg>
			<activity type="work" x="1520.0" y="510.0" >
			</activity>
		</plan>

	</person>

<!-- ====================================================================== -->

	<person id="o1_d_31">
		<plan selected="yes">
			<activity type="home" x="0.0" y="510.0" end_time="08:00:00" >
			</activity>
			<leg mode="car">
			</leg>
			<activity type="work" x="1520.0" y="510.0" >
			</activity>
		</plan>

	</person>

<!-- ====================================================================== -->

	<person id="o1_d_32">
		<plan selected="yes">
			<activity type="home" x="0.0" y="510.0" end_time="08:00:00" >
			</activity>
			<leg mode="car">
			</leg>
			<activity type="work" x="1520.0" y="510.0" >
			</activity>
		</plan>

	</person>

<!-- ====================================================================== -->

	<person id="o1_d_33">
		<plan selected="yes">
			<activity type="home" x="0.0" y="510.0" end_time="08:00:00" >
			</activity>
			<leg mode="car">
			</leg>
			<activity type="work" x="1520.0" y="510.0" >
			</activity>
		</plan>

	</person>

<!-- ====================================================================== -->

	<person id="o1_d_34">
		<plan selected="yes">
			<activity type="home" x="0.0" y="510.0" end_time="08:00:00" >
			</activity>
			<leg mode="car">
			</leg>
			<activity type="work" x="1520.0" y="510.0" >
			</activity>
		</plan>

	</person>

<!-- ====================================================================== -->

	<person id="o1_d_35">
		<plan selected="yes">
			<activity type="home" x="0.0" y="510.0" end_time="08:00:00" >
			</activity>
			<leg mode="car">
			</leg>
			<activity type="work" x="1520.0" y="510.0" >
			</activity>
		</plan>

	</person>

<!-- ====================================================================== -->

	<person id="o1_d_36">
		<plan selected="yes">
			<activity type="home" x="0.0" y="510.0" end_time="08:00:00" >
			</activity>
			<leg mode="car">
			</leg>
			<activity type="work" x="1520.0" y="510.0" >
			</activity>
		</plan>

	</person>

<!-- ====================================================================== -->

	<person id="o1_d_37">
		<plan selected="yes">
			<activity type="home" x="0.0" y="510.0" end_time="08:00:00" >
			</activity>
			<leg mode="car">
			</leg>
			<activity type="work" x="1520.0" y="510.0" >
			</activity>
		</plan>

	</person>

<!-- ====================================================================== -->

	<person id="o1_d_38">
		<plan selected="yes">
			<activity type="home" x="0.0" y="510.0" end_time="08:00:00" >
			</activity>
			<leg mode="car">
			</leg>
			<activity type="work" x="1520.0" y="510.0" >
			</activity>
		</plan>

	</person>

<!-- ====================================================================== -->

	<person id="o1_d_39">
		<plan selected="yes">
			<activity type="home" x="0.0" y="510.0" end_time="08:00:00" >
			</activity>
			<leg mode="car">
			</leg>
			<activity type="work" x="1520.0" y="510.0" >
			</activity>
		</plan>

	</person>

<!-- ====================================================================== -->

	<person id="o1_d_4">
		<plan selected="yes">
			<activity type="home" x="0.0" y="510.0" end_time="08:00:00" >
			</activity>
			<leg mode="car">
			</leg>
			<activity type="work" x="1520.0" y="510.0" >
			</activity>
		</plan>

	</person>

<!-- ====================================================================== -->

	<person id="o1_d_40">
		<plan selected="yes">
			<activity type="home" x="0.0" y="510.0" end_time="08:00:00" >
			</activity>
			<leg mode="car">
			</leg>
			<activity type="work" x="1520.0" y="510.0" >
			</activity>
		</plan>

	</person>

<!-- ====================================================================== -->

	<person id="o1_d_41">
		<plan selected="yes">
			<activity type="home" x="0.0" y="510.0" end_time="08:00:00" >
			</activity>
			<leg mode="car">
			</leg>
			<activity type="work" x="1520.0" y="510.0" >
			</activity>
		</plan>

	</person>

<!-- ====================================================================== -->

	<person id="o1_d_42">
		<plan selected="yes">
			<activity type="home" x="0.0" y="510.0" end_time="08:00:00" >
			</activity>
			<leg mode="car">
			</leg>
			<activity type="work" x="1520.0" y="510.0" >
			</activity>
		</plan>

	</person>

<!-- ====================================================================== -->

	<person id="o1_d_43">
		<plan selected="yes">
			<activity type="home" x="0.0" y="510.0" end_time="08:00:00" >
			</activity>
			<leg mode="car">
			</leg>
			<activity type="work" x="1520.0" y="510.0" >
			</activity>
		</plan>

	</person>

<!-- ====================================================================== -->

	<person id="o1_d_44">
		<plan selected="yes">
			<activity type="home" x="0.0" y="510.0" end_time="08:00:00" >
			</activity>
			<leg mode="car">
			</leg>
			<activity type="work" x="1520.0" y="510.0" >
			</activity>
		</plan>

	</person>

<!-- ====================================================================== -->

	<person id="o1_d_45">
		<plan selected="yes">
			<activity type="home" x="0.0" y="510.0" end_time="08:00:00" >
			</activity>
			<leg mode="car">
			</leg>
			<activity type="work" x="1520.0" y="510.0" >
			</activity>
		</plan>

	</person>

<!-- ====================================================================== -->

	<person id="o1_d_46">
		<plan selected="yes">
			<activity type="home" x="0.0" y="510.0" end_time="08:00:00" >
			</activity>
			<leg mode="car">
			</leg>
			<activity type="work" x="1520.0" y="510.0" >
			</activity>
		</plan>

	</person>

<!-- ====================================================================== -->

	<person id="o1_d_47">
		<plan selected="yes">
			<activity type="home" x="0.0" y="510.0" end_time="08:00:00" >
			</activity>
			<leg mode="car">
			</leg>
			<activity type="work" x="1520.0" y="510.0" >
			</activity>
		</plan>

	</person>

<!-- ====================================================================== -->

	<person id="o1_d_48">
		<plan selected="yes">
			<activity type="home" x="0.0" y="510.0" end_time="08:00:00" >
			</activity>
			<leg mode="car">
			</leg>
			<activity type="work" x="1520.0" y="510.0" >
			</activity>
		</plan>

	</person>

<!-- ====================================================================== -->

	<person id="o1_d_49">
		<plan selected="yes">
			<activity type="home" x="0.0" y="510.0" end_time="08:00:00" >
			</activity>
			<leg mode="car">
			</leg>
			<activity type="work" x="1520.0" y="510.0" >
			</activity>
		</plan>

	</person>

<!-- ====================================================================== -->

	<person id="o1_d_5">
		<plan selected="yes">
			<activity type="home" x="0.0" y="510.0" end_time="08:00:00" >
			</activity>
			<leg mode="car">
			</leg>
			<activity type="work" x="1520.0" y="510.0" >
			</activity>
		</plan>

	</person>

<!-- ====================================================================== -->

	<person id="o1_d_6">
		<plan selected="yes">
			<activity type="home" x="0.0" y="510.0" end_time="08:00:00" >
			</activity>
			<leg mode="car">
			</leg>
			<activity type="work" x="1520.0" y="510.0" >
			</activity>
		</plan>

	</person>

<!-- ====================================================================== -->

	<person id="o1_d_7">
		<plan selected="yes">
			<activity type="home" x="0.0" y="510.0" end_time="08:00:00" >
			</activity>
			<leg mode="car">
			</leg>
			<activity type="work" x="1520.0" y="510.0" >
			</activity>
		</plan>

	</person>

<!-- ====================================================================== -->

	<person id="o1_d_8">
		<plan selected="yes">
			<activity type="home" x="0.0" y="510.0" end_time="08:00:00" >
			</activity>
			<leg mode="car">
			</leg>
			<activity type="work" x="1520.0" y="510.0" >
			</activity>
		</plan>

	</person>

<!-- ====================================================================== -->

	<person id="o1_d_9">
		<plan selected="yes">
			<activity type="home" x="0.0" y="510.0" end_time="08:00:00" >
			</activity>
			<leg mode="car">
			</leg>
			<activity type="work" x="1520.0" y="510.0" >
			</activity>
		</plan>

	</person>

<!-- ====================================================================== -->

	<person id="o2_d_0">
		<plan selected="yes">
			<activity type="home" x="510.0" y="0.0" end_time="08:00:00" >
			</activity>
			<leg mode="car">
			</leg>
			<activity type="work" x="1520.0" y="510.0" >
			</activity>
		</plan>

	</person>

<!-- ====================================================================== -->

	<person id="o2_d_1">
		<plan selected="yes">
			<activity type="home" x="510.0" y="0.0" end_time="08:00:00" >
			</activity>
			<leg mode="car">
			</leg>
			<activity type="work" x="1520.0" y="510.0" >
			</activity>
		</plan>

	</person>

<!-- ====================================================================== -->

	<person id="o2_d_10">
		<plan selected="yes">
			<activity type="home" x="510.0" y="0.0" end_time="08:00:00" >
			</activity>
			<leg mode="car">
			</leg>
			<activity type="work" x="1520.0" y="510.0" >
			</activity>
		</plan>

	</person>

<!-- ====================================================================== -->

	<person id="o2_d_11">
		<plan selected="yes">
			<activity type="home" x="510.0" y="0.0" end_time="08:00:00" >
			</activity>
			<leg mode="car">
			</leg>
			<activity type="work" x="1520.0" y="510.0" >
			</activity>
		</plan>

	</person>

<!-- ====================================================================== -->

	<person id="o2_d_12">
		<plan selected="yes">
			<activity type="home" x="510.0" y="0.0" end_time="08:00:00" >
			</activity>
			<leg mode="car">
			</leg>
			<activity type="work" x="1520.0" y="510.0" >
			</activity>
		</plan>

	</person>

<!-- ====================================================================== -->

	<person id="o2_d_13">
		<plan selected="yes">
			<activity type="home" x="510.0" y="0.0" end_time="08:00:00" >
			</activity>
			<leg mode="car">
			</leg>
			<activity type="work" x="1520.0" y="510.0" >
			</activity>
		</plan>

	</person>

<!-- ====================================================================== -->

	<person id="o2_d_14">
		<plan selected="yes">
			<activity type="home" x="510.0" y="0.0" end_time="08:00:00" >
			</activity>
			<leg mode="car">
			</leg>
			<activity type="work" x="1520.0" y="510.0" >
			</activity>
		</plan>

	</person>

<!-- ====================================================================== -->

	<person id="o2_d_15">
		<plan selected="yes">
			<activity type="home" x="510.0" y="0.0" end_time="08:00:00" >
			</activity>
			<leg mode="car">
			</leg>
			<activity type="work" x="1520.0" y="510.0" >
			</activity>
		</plan>

	</person>

<!-- ====================================================================== -->

	<person id="o2_d_16">
		<plan selected="yes">
			<activity type="home" x="510.0" y="0.0" end_time="08:00:00" >
			</activity>
			<leg mode="car">
			</leg>
			<activity type="work" x="1520.0" y="510.0" >
			</activity>
		</plan>

	</person>

<!-- ====================================================================== -->

	<person id="o2_d_17">
		<plan selected="yes">
			<activity type="home" x="510.0" y="0.0" end_time="08:00:00" >
			</activity>
			<leg mode="car">
			</leg>
			<activity type="work" x="1520.0" y="510.0" >
			</activity>
		</plan>

	</person>

<!-- ====================================================================== -->

	<person id="o2_d_18">
		<plan selected="yes">
			<activity type="home" x="510.0" y="0.0" end_time="08:00:00" >
			</activity>
			<leg mode="car">
			</leg>
			<activity type="work" x="1520.0" y="510.0" >
			</activity>
		</plan>

	</person>

<!-- ====================================================================== -->

	<person id="o2_d_19">
		<plan selected="yes">
			<activity type="home" x="510.0" y="0.0" end_time="08:00:00" >
			</activity>
			<leg mode="car">
			</leg>
			<activity type="work" x="1520.0" y="510.0" >
			</activity>
		</plan>

	</person>

<!-- ====================================================================== -->

	<person id="o2_d_2">
		<plan selected="yes">
			<activity type="home" x="510.0" y="0.0" end_time="08:00:00" >
			</activity>
			<leg mode="car">
			</leg>
			<activity type="work" x="1520.0" y="510.0" >
			</activity>
		</plan>

	</person>

<!-- ====================================================================== -->

	<person id="o2_d_20">
		<plan selected="yes">
			<activity type="home" x="510.0" y="0.0" end_time="08:00:00" >
			</activity>
			<leg mode="car">
			</leg>
			<activity type="work" x="1520.0" y="510.0" >
			</activity>
		</plan>

	</person>

<!-- ====================================================================== -->

	<person id="o2_d_21">
		<plan selected="yes">
			<activity type="home" x="510.0" y="0.0" end_time="08:00:00" >
			</activity>
			<leg mode="car">
			</leg>
			<activity type="work" x="1520.0" y="510.0" >
			</activity>
		</plan>

	</person>

<!-- ====================================================================== -->

	<person id="o2_d_22">
		<plan selected="yes">
			<activity type="home" x="510.0" y="0.0" end_time="08:00:00" >
			</activity>
			<leg mode="car">
			</leg>
			<activity type="work" x="1520.0" y="510.0" >
			</activity>
		</plan>

	</person>

<!-- ====================================================================== -->

	<person id="o2_d_23">
		<plan selected="yes">
			<activity type="home" x="510.0" y="0.0" end_time="08:00:00" >
			</activity>
			<leg mode="car">
			</leg>
			<activity type="work" x="1520.0" y="510.0" >
			</activity>
		</plan>

	</person>

<!-- ====================================================================== -->

	<person id="o2_d_24">
		<plan selected="yes">
			<activity type="home" x="510.0" y="0.0" end_time="08:00:00" >
			</activity>
			<leg mode="car">
			</leg>
			<activity type="work" x="1520.0" y="510.0" >
			</activity>
		</plan>

	</person>

<!-- ====================================================================== -->

	<person id="o2_d_25">
		<plan selected="yes">
			<activity type="home" x="510.0" y="0.0" end_time="08:00:00" >
			</activity>
			<leg mode="car">
			</leg>
			<activity type="work" x="1520.0" y="510.0" >
			</activity>
		</plan>

	</person>

<!-- ====================================================================== -->

	<person id="o2_d_26">
		<plan selected="yes">
			<activity type="home" x="510.0" y="0.0" end_time="08:00:00" >
			</activity>
			<leg mode="car">
			</leg>
			<activity type="work" x="1520.0" y="510.0" >
			</activity>
		</plan>

	</person>

<!-- ====================================================================== -->

	<person id="o2_d_27">
		<plan selected="yes">
			<activity type="home" x="510.0" y="0.0" end_time="08:00:00" >
			</activity>
			<leg mode="car">
			</leg>
			<activity type="work" x="1520.0" y="510.0" >
			</activity>
		</plan>

	</person>

<!-- ====================================================================== -->

	<person id="o2_d_28">
		<plan selected="yes">
			<activity type="home" x="510.0" y="0.0" end_time="08:00:00" >
			</activity>
			<leg mode="car">
			</leg>
			<activity type="work" x="1520.0" y="510.0" >
			</activity>
		</plan>

	</person>

<!-- ====================================================================== -->

	<person id="o2_d_29">
		<plan selected="yes">
			<activity type="home" x="510.0" y="0.0" end_time="08:00:00" >
			</activity>
			<leg mode="car">
			</leg>
			<activity type="work" x="1520.0" y="510.0" >
			</activity>
		</plan>

	</person>

<!-- ====================================================================== -->

	<person id="o2_d_3">
		<plan selected="yes">
			<activity type="home" x="510.0" y="0.0" end_time="08:00:00" >
			</activity>
			<leg mode="car">
			</leg>
			<activity type="work" x="1520.0" y="510.0" >
			</activity>
		</plan>

	</person>

<!-- ====================================================================== -->

	<person id="o2_d_30">
		<plan selected="yes">
			<activity type="home" x="510.0" y="0.0" end_time="08:00:00" >
			</activity>
			<leg mode="car">
			</leg>
			<activity type="work" x="1520.0" y="510.0" >
			</activity>
		</plan>

	</person>

<!-- ====================================================================== -->

	<person id="o2_d_31">
		<plan selected="yes">
			<activity type="home" x="510.0" y="0.0" end_time="08:00:00" >
			</activity>
			<leg mode="car">
			</leg>
			<activity type="work" x="1520.0" y="510.0" >
			</activity>
		</plan>

	</person>

<!-- ====================================================================== -->

	<person id="o2_d_32">
		<plan selected="yes">
			<activity type="home" x="510.0" y="0.0" end_time="08:00:00" >
			</activity>
			<leg mode="car">
			</leg>
			<activity type="work" x="1520.0" y="510.0" >
			</activity>
		</plan>

	</person>

<!-- ====================================================================== -->

	<person id="o2_d_33">
		<plan selected="yes">
			<activity type="home" x="510.0" y="0.0" end_time="08:00:00" >
			</activity>
			<leg mode="car">
			</leg>
			<activity type="work" x="1520.0" y="510.0" >
			</activity>
		</plan>

	</person>

<!-- ====================================================================== -->

	<person id="o2_d_34">
		<plan selected="yes">
			<activity type="home" x="510.0" y="0.0" end_time="08:00:00" >
			</activity>
			<leg mode="car">
			</leg>
			<activity type="work" x="1520.0" y="510.0" >
			</activity>
		</plan>

	</person>

<!-- ====================================================================== -->

	<person id="o2_d_35">
		<plan selected="yes">
			<activity type="home" x="510.0" y="0.0" end_time="08:00:00" >
			</activity>
			<leg mode="car">
			</leg>
			<activity type="work" x="1520.0" y="510.0" >
			</activity>
		</plan>

	</person>

<!-- ====================================================================== -->

	<person id="o2_d_36">
		<plan selected="yes">
			<activity type="home" x="510.0" y="0.0" end_time="08:00:00" >
			</activity>
			<leg mode="car">
			</leg>
			<activity type="work" x="1520.0" y="510.0" >
			</activity>
		</plan>

	</person>

<!-- ====================================================================== -->

	<person id="o2_d_37">
		<plan selected="yes">
			<activity type="home" x="510.0" y="0.0" end_time="08:00:00" >
			</activity>
			<leg mode="car">
			</leg>
			<activity type="work" x="1520.0" y="510.0" >
			</activity>
		</plan>

	</person>

<!-- ====================================================================== -->

	<person id="o2_d_38">
		<plan selected="yes">
			<activity type="home" x="510.0" y="0.0" end_time="08:00:00" >
			</activity>
			<leg mode="car">
			</leg>
			<activity type="work" x="1520.0" y="510.0" >
			</activity>
		</plan>

	</person>

<!-- ====================================================================== -->

	<person id="o2_d_39">
		<plan selected="yes">
			<activity type="home" x="510.0" y="0.0" end_time="08:00:00" >
			</activity>
			<leg mode="car">
			</leg>
			<activity type="work" x="1520.0" y="510.0" >
			</activity>
		</plan>

	</person>

<!-- ====================================================================== -->

	<person id="o2_d_4">
		<plan selected="yes">
			<activity type="home" x="510.0" y="0.0" end_time="08:00:00" >
			</activity>
			<leg mode="car">
			</leg>
			<activity type="work" x="1520.0" y="510.0" >
			</activity>
		</plan>

	</person>

<!-- ====================================================================== -->

	<person id="o2_d_40">
		<plan selected="yes">
			<activity type="home" x="510.0" y="0.0" end_time="08:00:00" >
			</activity>
			<leg mode="car">
			</leg>
			<activity type="work" x="1520.0" y="510.0" >
			</activity>
		</plan>

	</person>

<!-- ====================================================================== -->

	<person id="o2_d_41">
		<plan selected="yes">
			<activity type="home" x="510.0" y="0.0" end_time="08:00:00" >
			</activity>
			<leg mode="car">
			</leg>
			<activity type="work" x="1520.0" y="510.0" >
			</activity>
		</plan>

	</person>

<!-- ====================================================================== -->

	<person id="o2_d_42">
		<plan selected="yes">
			<activity type="home" x="510.0" y="0.0" end_time="08:00:00" >
			</activity>
			<leg mode="car">
			</leg>
			<activity type="work" x="1520.0" y="510.0" >
			</activity>
		</plan>

	</person>

<!-- ====================================================================== -->

	<person id="o2_d_43">
		<plan selected="yes">
			<activity type="home" x="510.0" y="0.0" end_time="08:00:00" >
			</activity>
			<leg mode="car">
			</leg>
			<activity type="work" x="1520.0" y="510.0" >
			</activity>
		</plan>

	</person>

<!-- ====================================================================== -->

	<person id="o2_d_44">
		<plan selected="yes">
			<activity type="home" x="510.0" y="0.0" end_time="08:00:00" >
			</activity>
			<leg mode="car">
			</leg>
			<activity type="work" x="1520.0" y="510.0" >
			</activity>
		</plan>

	</person>

<!-- ====================================================================== -->

	<person id="o2_d_45">
		<plan selected="yes">
			<activity type="home" x="510.0" y="0.0" end_time="08:00:00" >
			</activity>
			<leg mode="car">
			</leg>
			<activity type="work" x="1520.0" y="510.0" >
			</activity>
		</plan>

	</person>

<!-- ====================================================================== -->

	<person id="o2_d_46">
		<plan selected="yes">
			<activity type="home" x="510.0" y="0.0" end_time="08:00:00" >
			</activity>
			<leg mode="car">
			</leg>
			<activity type="work" x="1520.0" y="510.0" >
			</activity>
		</plan>

	</person>
